metrix-mapping/src/test/resources/expected/NetworkPointWriter/full/SimpleNetworkWithReducedThresholds_1_20150101_0200.xiidm
<?xml version="1.0" encoding="UTF-8"?>
<iidm:network xmlns:iidm="http://www.powsybl.org/schema/iidm/1_18" xmlns:ld="http://www.itesla_project.eu/schema/iidm/ext/load_detail/1_0" xmlns:hopr="http://www.itesla_project.eu/schema/iidm/ext/hvdc_operator_active_power_range/1_0" xmlns:hapc="http://www.itesla_project.eu/schema/iidm/ext/hvdc_angle_droop_active_power_control/1_0" id="SimpleNetworkWithReducedThresholds" caseDate="2015-09-29T09:14:00.000+01:00" forecastDistance="0" sourceFormat="NF" minimumValidationLevel="STEADY_STATE_HYPOTHESIS">
    <iidm:substation id="FP.AN" country="FR" tso="RTE">
        <iidm:property name="paysCvg" value="FRANCE"/>
        <iidm:property name="regionCvg" value="LILLE"/>
        <iidm:voltageLevel id="FP.AND1" nominalV="380.0" lowVoltageLimit="342.0" highVoltageLimit="418.0001220703125" topologyKind="NODE_BREAKER">
            <iidm:nodeBreakerTopology>
                <iidm:busbarSection id="FP.AND1_1" name="1" node="0"/>
                <iidm:busbarSection id="FP.AND1_mnv" name="mnv" node="1"/>
                <iidm:switch id="FP.AND1_FP.AND1  FVERGE1  1_SC5_0" name="FP.AND1  FVERGE1  1_SC5_0" kind="DISCONNECTOR" open="false" node1="0" node2="2"/>
                <iidm:switch id="FP.AND1_FP.AND1  FVERGE1  1_SC5_1" name="FP.AND1  FVERGE1  1_SC5_1" kind="DISCONNECTOR" open="true" node1="1" node2="2"/>
                <iidm:switch id="FP.AND1_FP.AND1  FVERGE1  1_DJ5" name="FP.AND1  FVERGE1  1_DJ5" kind="BREAKER" open="true" node1="2" node2="3"/>
                <iidm:switch id="FP.AND1_FP.AND1  FVERGE1  2_SC7_0" name="FP.AND1  FVERGE1  2_SC7_0" kind="DISCONNECTOR" open="false" node1="0" node2="4"/>
                <iidm:switch id="FP.AND1_FP.AND1  FVERGE1  2_SC7_1" name="FP.AND1  FVERGE1  2_SC7_1" kind="DISCONNECTOR" open="true" node1="1" node2="4"/>
                <iidm:switch id="FP.AND1_FP.AND1  FVERGE1  2_DJ7" name="FP.AND1  FVERGE1  2_DJ7" kind="BREAKER" open="false" node1="4" node2="5"/>
                <iidm:switch id="FP.AND1_FSSV.O1  FP.AND1  1_SC9_0" name="FSSV.O1  FP.AND1  1_SC9_0" kind="DISCONNECTOR" open="false" node1="0" node2="6"/>
                <iidm:switch id="FP.AND1_FSSV.O1  FP.AND1  1_SC9_1" name="FSSV.O1  FP.AND1  1_SC9_1" kind="DISCONNECTOR" open="true" node1="1" node2="6"/>
                <iidm:switch id="FP.AND1_FSSV.O1  FP.AND1  1_DJ9" name="FSSV.O1  FP.AND1  1_DJ9" kind="BREAKER" open="false" node1="6" node2="7"/>
                <iidm:switch id="FP.AND1_FSSV.O1  FP.AND1  2_SC11_0" name="FSSV.O1  FP.AND1  2_SC11_0" kind="DISCONNECTOR" open="false" node1="0" node2="8"/>
                <iidm:switch id="FP.AND1_FSSV.O1  FP.AND1  2_SC11_1" name="FSSV.O1  FP.AND1  2_SC11_1" kind="DISCONNECTOR" open="true" node1="1" node2="8"/>
                <iidm:switch id="FP.AND1_FSSV.O1  FP.AND1  2_DJ11" name="FSSV.O1  FP.AND1  2_DJ11" kind="BREAKER" open="false" node1="8" node2="9"/>
                <iidm:switch id="FP.AND1_FP.AND1  FTDPRA1  1_SC13_0" name="FP.AND1  FTDPRA1  1_SC13_0" kind="DISCONNECTOR" open="false" node1="0" node2="10"/>
                <iidm:switch id="FP.AND1_FP.AND1  FTDPRA1  1_SC13_1" name="FP.AND1  FTDPRA1  1_SC13_1" kind="DISCONNECTOR" open="true" node1="1" node2="10"/>
                <iidm:switch id="FP.AND1_FP.AND1  FTDPRA1  1_DJ13" name="FP.AND1  FTDPRA1  1_DJ13" kind="BREAKER" open="true" node1="10" node2="11"/>
                <iidm:switch id="FP.AND1__SC14_0" name="_SC14_0" kind="DISCONNECTOR" open="false" node1="0" node2="12"/>
                <iidm:switch id="FP.AND1__SC14_1" name="_SC14_1" kind="DISCONNECTOR" open="true" node1="1" node2="12"/>
                <iidm:switch id="FP.AND1__SC15_0" name="_SC15_0" kind="DISCONNECTOR" open="true" node1="0" node2="13"/>
                <iidm:switch id="FP.AND1__SC15_1" name="_SC15_1" kind="DISCONNECTOR" open="false" node1="1" node2="13"/>
                <iidm:switch id="FP.AND1_FP.AND1_DJ_OMN" name="FP.AND1_DJ_OMN" kind="BREAKER" open="false" node1="12" node2="13"/>
                <iidm:bus v="380.0" angle="0.0" nodes="0,1,2,4,5,6,7,8,9,10,12,13"/>
            </iidm:nodeBreakerTopology>
            <iidm:battery id="BATTERY_1" targetP="100.0" targetQ="11.0" minP="100.0" maxP="3000.0" node="6">
                <iidm:minMaxReactiveLimits minQ="-1.7976931348623157E308" maxQ="1.7976931348623157E308"/>
            </iidm:battery>
        </iidm:voltageLevel>
        <iidm:voltageLevel id="FTDPRA1" nominalV="380.0" lowVoltageLimit="342.0" highVoltageLimit="418.0001220703125" topologyKind="NODE_BREAKER">
            <iidm:property name="siteInit" value="FTDPR"/>
            <iidm:nodeBreakerTopology>
                <iidm:busbarSection id="FTDPRA1_1" name="1" node="0"/>
                <iidm:busbarSection id="FTDPRA1_mnv" name="mnv" node="1"/>
                <iidm:switch id="FTDPRA1_FTDPRA1  FVERGE1  1_SC5_0" name="FTDPRA1  FVERGE1  1_SC5_0" kind="DISCONNECTOR" open="false" node1="0" node2="2"/>
                <iidm:switch id="FTDPRA1_FTDPRA1  FVERGE1  1_SC5_1" name="FTDPRA1  FVERGE1  1_SC5_1" kind="DISCONNECTOR" open="true" node1="1" node2="2"/>
                <iidm:switch id="FTDPRA1_FTDPRA1  FVERGE1  1_DJ5" name="FTDPRA1  FVERGE1  1_DJ5" kind="BREAKER" open="false" node1="2" node2="3"/>
                <iidm:switch id="FTDPRA1_FTDPRA1  FVERGE1  2_SC7_0" name="FTDPRA1  FVERGE1  2_SC7_0" kind="DISCONNECTOR" open="false" node1="0" node2="4"/>
                <iidm:switch id="FTDPRA1_FTDPRA1  FVERGE1  2_SC7_1" name="FTDPRA1  FVERGE1  2_SC7_1" kind="DISCONNECTOR" open="true" node1="1" node2="4"/>
                <iidm:switch id="FTDPRA1_FTDPRA1  FVERGE1  2_DJ7" name="FTDPRA1  FVERGE1  2_DJ7" kind="BREAKER" open="false" node1="4" node2="5"/>
                <iidm:switch id="FTDPRA1_FVALDI1  FTDPRA1  1_SC9_0" name="FVALDI1  FTDPRA1  1_SC9_0" kind="DISCONNECTOR" open="false" node1="0" node2="6"/>
                <iidm:switch id="FTDPRA1_FVALDI1  FTDPRA1  1_SC9_1" name="FVALDI1  FTDPRA1  1_SC9_1" kind="DISCONNECTOR" open="true" node1="1" node2="6"/>
                <iidm:switch id="FTDPRA1_FVALDI1  FTDPRA1  1_DJ9" name="FVALDI1  FTDPRA1  1_DJ9" kind="BREAKER" open="false" node1="6" node2="7"/>
                <iidm:switch id="FTDPRA1_FVALDI1  FTDPRA1  2_SC11_0" name="FVALDI1  FTDPRA1  2_SC11_0" kind="DISCONNECTOR" open="false" node1="0" node2="8"/>
                <iidm:switch id="FTDPRA1_FVALDI1  FTDPRA1  2_SC11_1" name="FVALDI1  FTDPRA1  2_SC11_1" kind="DISCONNECTOR" open="true" node1="1" node2="8"/>
                <iidm:switch id="FTDPRA1_FVALDI1  FTDPRA1  2_DJ11" name="FVALDI1  FTDPRA1  2_DJ11" kind="BREAKER" open="false" node1="8" node2="9"/>
                <iidm:switch id="FTDPRA1_FP.AND1  FTDPRA1  1_SC13_0" name="FP.AND1  FTDPRA1  1_SC13_0" kind="DISCONNECTOR" open="false" node1="0" node2="10"/>
                <iidm:switch id="FTDPRA1_FP.AND1  FTDPRA1  1_SC13_1" name="FP.AND1  FTDPRA1  1_SC13_1" kind="DISCONNECTOR" open="true" node1="1" node2="10"/>
                <iidm:switch id="FTDPRA1_FP.AND1  FTDPRA1  1_DJ13" name="FP.AND1  FTDPRA1  1_DJ13" kind="BREAKER" open="true" node1="10" node2="11"/>
                <iidm:switch id="FTDPRA1__SC14_0" name="_SC14_0" kind="DISCONNECTOR" open="false" node1="0" node2="12"/>
                <iidm:switch id="FTDPRA1__SC14_1" name="_SC14_1" kind="DISCONNECTOR" open="true" node1="1" node2="12"/>
                <iidm:switch id="FTDPRA1__SC15_0" name="_SC15_0" kind="DISCONNECTOR" open="true" node1="0" node2="13"/>
                <iidm:switch id="FTDPRA1__SC15_1" name="_SC15_1" kind="DISCONNECTOR" open="false" node1="1" node2="13"/>
                <iidm:switch id="FTDPRA1_FTDPRA1_DJ_OMN" name="FTDPRA1_DJ_OMN" kind="BREAKER" open="false" node1="12" node2="13"/>
                <iidm:bus v="380.0" angle="-0.0380914769006283" nodes="0,1,2,3,4,5,6,7,8,9,10,12,13"/>
            </iidm:nodeBreakerTopology>
        </iidm:voltageLevel>
        <iidm:twoWindingsTransformer id="FP.AND1  FTDPRA1  1" r="13.0" x="1.0" ratedU1="11.0" ratedU2="11.0" voltageLevelId1="FTDPRA1" node1="11" voltageLevelId2="FP.AND1" node2="11" p1="-95.99961429575856" p2="95.99961429575856" selectedOperationalLimitsGroupIds1="DEFAULT" selectedOperationalLimitsGroupIds2="DEFAULT">
            <iidm:ratioTapChanger regulating="false" tapPosition="11" loadTapChangingCapabilities="true" regulationMode="VOLTAGE" regulationValue="11.0">
                <iidm:step rho="1.0880000591278076"/>
                <iidm:step rho="1.0829999446868896"/>
                <iidm:step rho="1.0779999494552612"/>
                <iidm:step rho="1.0729999542236328"/>
                <iidm:step rho="1.0679999589920044"/>
                <iidm:step rho="1.0640000104904175"/>
                <iidm:step rho="1.059000015258789"/>
                <iidm:step rho="1.0540000200271606"/>
                <iidm:step rho="1.0490000247955322"/>
                <iidm:step rho="1.0440000295639038"/>
                <iidm:step rho="1.0399999618530273"/>
                <iidm:step rho="1.034999966621399"/>
                <iidm:step rho="1.0299999713897705"/>
                <iidm:step rho="1.024999976158142"/>
                <iidm:step rho="1.0199999809265137"/>
                <iidm:step rho="1.0160000324249268"/>
                <iidm:step rho="1.0110000371932983"/>
                <iidm:step rho="1.00600004196167"/>
                <iidm:step rho="1.0010000467300415"/>
                <iidm:step rho="0.9959999918937683"/>
                <iidm:step rho="0.9919999837875366"/>
                <iidm:step rho="0.9869999885559082"/>
                <iidm:step rho="0.9819999933242798"/>
                <iidm:step rho="0.9769999980926514"/>
                <iidm:step rho="0.972000002861023"/>
                <iidm:step rho="0.9679999947547913"/>
                <iidm:step rho="0.9629999995231628"/>
                <iidm:step rho="0.9580000042915344"/>
                <iidm:step rho="0.953000009059906"/>
            </iidm:ratioTapChanger>
            <iidm:phaseTapChanger regulating="true" tapPosition="11" targetDeadband="11.0" loadTapChangingCapabilities="true" regulationMode="ACTIVE_POWER_CONTROL" regulationValue="600.0">
                <iidm:terminalRef id="FP.AND1  FTDPRA1  1" side="ONE"/>
                <iidm:step r="6.705299601890147E-4" x="6.616116152144969E-4" rho="1.0" alpha="-9.167247772216797"/>
                <iidm:step r="6.705299601890147E-4" x="6.616116152144969E-4" rho="1.0" alpha="-0.15"/>
                <iidm:step r="6.705299601890147E-4" x="6.616116152144969E-4" rho="1.0" alpha="-0.14"/>
                <iidm:step r="6.705299601890147E-4" x="6.616116152144969E-4" rho="1.0" alpha="-0.13"/>
                <iidm:step r="6.705299601890147E-4" x="6.616116152144969E-4" rho="1.0" alpha="-0.12"/>
                <iidm:step r="6.705299601890147E-4" x="6.616116152144969E-4" rho="1.0" alpha="-0.11"/>
                <iidm:step r="6.705299601890147E-4" x="6.616116152144969E-4" rho="1.0" alpha="-0.1"/>
                <iidm:step r="6.705299601890147E-4" x="6.616116152144969E-4" rho="1.0" alpha="-0.09"/>
                <iidm:step r="6.705299601890147E-4" x="6.616116152144969E-4" rho="1.0" alpha="-0.08"/>
                <iidm:step r="6.705299601890147E-4" x="6.616116152144969E-4" rho="1.0" alpha="-0.07"/>
                <iidm:step r="6.705299601890147E-4" x="6.616116152144969E-4" rho="1.0" alpha="-0.06"/>
                <iidm:step r="6.705299601890147E-4" x="6.616116152144969E-4" rho="1.0" alpha="-0.05"/>
                <iidm:step r="6.705299601890147E-4" x="6.616116152144969E-4" rho="1.0" alpha="-0.04"/>
                <iidm:step r="6.705299601890147E-4" x="6.616116152144969E-4" rho="1.0" alpha="-0.03"/>
                <iidm:step r="6.705299601890147E-4" x="6.616116152144969E-4" rho="1.0" alpha="-0.02"/>
                <iidm:step r="6.705299601890147E-4" x="6.616116152144969E-4" rho="1.0" alpha="-0.01"/>
                <iidm:step r="6.705299601890147E-4" x="6.616116152144969E-4" rho="1.0" alpha="0.0"/>
                <iidm:step r="6.705299601890147E-4" x="6.616116152144969E-4" rho="1.0" alpha="0.01"/>
                <iidm:step r="6.705299601890147E-4" x="6.616116152144969E-4" rho="1.0" alpha="0.02"/>
                <iidm:step r="6.705299601890147E-4" x="6.616116152144969E-4" rho="1.0" alpha="0.03"/>
                <iidm:step r="6.705299601890147E-4" x="6.616116152144969E-4" rho="1.0" alpha="0.04"/>
                <iidm:step r="6.705299601890147E-4" x="6.616116152144969E-4" rho="1.0" alpha="0.05"/>
                <iidm:step r="6.705299601890147E-4" x="6.616116152144969E-4" rho="1.0" alpha="0.06"/>
                <iidm:step r="6.705299601890147E-4" x="6.616116152144969E-4" rho="1.0" alpha="0.07"/>
                <iidm:step r="6.705299601890147E-4" x="6.616116152144969E-4" rho="1.0" alpha="0.08"/>
                <iidm:step r="6.705299601890147E-4" x="6.616116152144969E-4" rho="1.0" alpha="0.09"/>
                <iidm:step r="6.705299601890147E-4" x="6.616116152144969E-4" rho="1.0" alpha="0.1"/>
                <iidm:step r="6.705299601890147E-4" x="6.616116152144969E-4" rho="1.0" alpha="0.11"/>
                <iidm:step r="6.705299601890147E-4" x="6.616116152144969E-4" rho="1.0" alpha="0.12"/>
                <iidm:step r="6.705299601890147E-4" x="6.616116152144969E-4" rho="1.0" alpha="0.13"/>
                <iidm:step r="6.705299601890147E-4" x="6.616116152144969E-4" rho="1.0" alpha="0.14"/>
                <iidm:step r="6.705299601890147E-4" x="6.616116152144969E-4" rho="1.0" alpha="0.15"/>
                <iidm:step r="6.705299601890147E-4" x="6.616116152144969E-4" rho="1.0" alpha="9.167247772216797"/>
            </iidm:phaseTapChanger>
            <iidm:operationalLimitsGroup1 id="DEFAULT">
                <iidm:currentLimits permanentLimit="400.0"/>
            </iidm:operationalLimitsGroup1>
            <iidm:operationalLimitsGroup2 id="DEFAULT">
                <iidm:currentLimits permanentLimit="400.0">
                    <iidm:temporaryLimit name="IT20" acceptableDuration="1200" value="450.0000305175781"/>
                    <iidm:temporaryLimit name="IT10" acceptableDuration="600" value="500.0000305175781"/>
                    <iidm:temporaryLimit name="IT0.0166667" acceptableDuration="1"/>
                </iidm:currentLimits>
            </iidm:operationalLimitsGroup2>
        </iidm:twoWindingsTransformer>
    </iidm:substation>
    <iidm:substation id="FS.BI" country="FR" tso="RTE">
        <iidm:property name="paysCvg" value="FRANCE"/>
        <iidm:property name="regionCvg" value="LILLE"/>
        <iidm:voltageLevel id="FS.BIS1" nominalV="380.0" lowVoltageLimit="342.0" highVoltageLimit="418.0001220703125" topologyKind="NODE_BREAKER">
            <iidm:nodeBreakerTopology>
                <iidm:busbarSection id="FS.BIS1_1" name="1" node="0"/>
                <iidm:busbarSection id="FS.BIS1_mnv" name="mnv" node="1"/>
                <iidm:switch id="FS.BIS1_FS.BIS1  FVALDI1  1_SC5_0" name="FS.BIS1  FVALDI1  1_SC5_0" kind="DISCONNECTOR" open="false" node1="0" node2="2"/>
                <iidm:switch id="FS.BIS1_FS.BIS1  FVALDI1  1_SC5_1" name="FS.BIS1  FVALDI1  1_SC5_1" kind="DISCONNECTOR" open="true" node1="1" node2="2"/>
                <iidm:switch id="FS.BIS1_FS.BIS1  FVALDI1  1_DJ5" name="FS.BIS1  FVALDI1  1_DJ5" kind="BREAKER" open="false" node1="2" node2="3"/>
                <iidm:switch id="FS.BIS1_FS.BIS1  FVALDI1  2_SC7_0" name="FS.BIS1  FVALDI1  2_SC7_0" kind="DISCONNECTOR" open="true" node1="0" node2="4"/>
                <iidm:switch id="FS.BIS1_FS.BIS1  FVALDI1  2_SC7_1" name="FS.BIS1  FVALDI1  2_SC7_1" kind="DISCONNECTOR" open="false" node1="1" node2="4"/>
                <iidm:switch id="FS.BIS1_FS.BIS1  FVALDI1  2_DJ7" name="FS.BIS1  FVALDI1  2_DJ7" kind="BREAKER" open="false" node1="4" node2="5"/>
                <iidm:switch id="FS.BIS1__SC12_0" name="_SC12_0" kind="DISCONNECTOR" open="false" node1="0" node2="6"/>
                <iidm:switch id="FS.BIS1__SC12_1" name="_SC12_1" kind="DISCONNECTOR" open="true" node1="1" node2="6"/>
                <iidm:switch id="FS.BIS1__SC13_0" name="_SC13_0" kind="DISCONNECTOR" open="true" node1="0" node2="7"/>
                <iidm:switch id="FS.BIS1__SC13_1" name="_SC13_1" kind="DISCONNECTOR" open="false" node1="1" node2="7"/>
                <iidm:switch id="FS.BIS1_FS.BIS1_DJ_OMN" name="FS.BIS1_DJ_OMN" kind="BREAKER" retained="true" open="false" node1="6" node2="7"/>
                <iidm:switch id="FS.BIS1_Disj FS.BIS1 FSSV.O1 1" name="Disj FS.BIS1 FSSV.O1 1" kind="BREAKER" open="false" node1="8" node2="9"/>
                <iidm:switch id="FS.BIS1_Sect 1 FS.BIS1 FSSV.O1 1" name="Sect 1 FS.BIS1 FSSV.O1 1" kind="DISCONNECTOR" open="false" node1="9" node2="0"/>
                <iidm:switch id="FS.BIS1_Sect mnv FS.BIS1 FSSV.O1 1" name="Sect mnv FS.BIS1 FSSV.O1 1" kind="DISCONNECTOR" open="true" node1="9" node2="1"/>
                <iidm:switch id="FS.BIS1_Disj FS.BIS1 FSSV.O1 2" name="Disj FS.BIS1 FSSV.O1 2" kind="BREAKER" open="false" node1="10" node2="11"/>
                <iidm:switch id="FS.BIS1_Sect 1 FS.BIS1 FSSV.O1 2" name="Sect 1 FS.BIS1 FSSV.O1 2" kind="DISCONNECTOR" open="true" node1="11" node2="0"/>
                <iidm:switch id="FS.BIS1_Sect mnv FS.BIS1 FSSV.O1 2" name="Sect mnv FS.BIS1 FSSV.O1 2" kind="DISCONNECTOR" open="false" node1="11" node2="1"/>
                <iidm:bus v="380.0" angle="-0.01904573845031415" nodes="0,1,2,3,4,5,6,7,8,9,10,11"/>
            </iidm:nodeBreakerTopology>
        </iidm:voltageLevel>
    </iidm:substation>
    <iidm:substation id="FSSV." country="FR" tso="RTE">
        <iidm:property name="paysCvg" value="FRANCE"/>
        <iidm:property name="regionCvg" value="LILLE"/>
        <iidm:voltageLevel id="FSSV.O1" nominalV="380.0" lowVoltageLimit="342.0" highVoltageLimit="418.0001220703125" topologyKind="NODE_BREAKER">
            <iidm:nodeBreakerTopology>
                <iidm:busbarSection id="FSSV.O1_1" name="1" node="0"/>
                <iidm:busbarSection id="FSSV.O1_mnv" name="mnv" node="1"/>
                <iidm:switch id="FSSV.O1_FSSV.O11_G_SC3_0" name="FSSV.O11_G_SC3_0" kind="DISCONNECTOR" open="false" node1="0" node2="2"/>
                <iidm:switch id="FSSV.O1_FSSV.O11_G_SC3_1" name="FSSV.O11_G_SC3_1" kind="DISCONNECTOR" open="true" node1="1" node2="2"/>
                <iidm:switch id="FSSV.O1_FSSV.O11_G_DJ3" name="FSSV.O11_G_DJ3" kind="BREAKER" open="true" node1="2" node2="3"/>
                <iidm:switch id="FSSV.O1_FSSV.O1  FP.AND1  1_SC5_0" name="FSSV.O1  FP.AND1  1_SC5_0" kind="DISCONNECTOR" open="true" node1="0" node2="4"/>
                <iidm:switch id="FSSV.O1_FSSV.O1  FP.AND1  1_SC5_1" name="FSSV.O1  FP.AND1  1_SC5_1" kind="DISCONNECTOR" open="false" node1="1" node2="4"/>
                <iidm:switch id="FSSV.O1_FSSV.O1  FP.AND1  1_DJ5" name="FSSV.O1  FP.AND1  1_DJ5" kind="BREAKER" open="false" node1="4" node2="5"/>
                <iidm:switch id="FSSV.O1_FSSV.O1  FP.AND1  2_SC7_0" name="FSSV.O1  FP.AND1  2_SC7_0" kind="DISCONNECTOR" open="false" node1="0" node2="6"/>
                <iidm:switch id="FSSV.O1_FSSV.O1  FP.AND1  2_SC7_1" name="FSSV.O1  FP.AND1  2_SC7_1" kind="DISCONNECTOR" open="true" node1="1" node2="6"/>
                <iidm:switch id="FSSV.O1_FSSV.O1  FP.AND1  2_DJ7" name="FSSV.O1  FP.AND1  2_DJ7" kind="BREAKER" open="false" node1="6" node2="7"/>
                <iidm:switch id="FSSV.O1__SC12_0" name="_SC12_0" kind="DISCONNECTOR" open="false" node1="0" node2="8"/>
                <iidm:switch id="FSSV.O1__SC12_1" name="_SC12_1" kind="DISCONNECTOR" open="true" node1="1" node2="8"/>
                <iidm:switch id="FSSV.O1__SC13_0" name="_SC13_0" kind="DISCONNECTOR" open="true" node1="0" node2="9"/>
                <iidm:switch id="FSSV.O1__SC13_1" name="_SC13_1" kind="DISCONNECTOR" open="false" node1="1" node2="9"/>
                <iidm:switch id="FSSV.O1_FSSV.O1_DJ_OMN" name="FSSV.O1_DJ_OMN" kind="BREAKER" retained="true" open="false" node1="8" node2="9"/>
                <iidm:switch id="FSSV.O1_Disj HVDC1" name="Disj HVDC1" kind="BREAKER" open="false" node1="10" node2="11"/>
                <iidm:switch id="FSSV.O1_Sect 1 HVDC1" name="Sect 1 HVDC1" kind="DISCONNECTOR" open="true" node1="11" node2="0"/>
                <iidm:switch id="FSSV.O1_Sect mnv HVDC1" name="Sect mnv HVDC1" kind="DISCONNECTOR" open="false" node1="11" node2="1"/>
                <iidm:switch id="FSSV.O1_Disj HVDC2" name="Disj HVDC2" kind="BREAKER" open="false" node1="12" node2="13"/>
                <iidm:switch id="FSSV.O1_Sect 1 HVDC2" name="Sect 1 HVDC2" kind="DISCONNECTOR" open="false" node1="13" node2="0"/>
                <iidm:switch id="FSSV.O1_Sect mnv HVDC2" name="Sect mnv HVDC2" kind="DISCONNECTOR" open="true" node1="13" node2="1"/>
                <iidm:switch id="FSSV.O1_Disj FS.BIS1 FSSV.O1 1" name="Disj FS.BIS1 FSSV.O1 1" kind="BREAKER" open="false" node1="14" node2="15"/>
                <iidm:switch id="FSSV.O1_Sect 1 FS.BIS1 FSSV.O1 1" name="Sect 1 FS.BIS1 FSSV.O1 1" kind="DISCONNECTOR" open="true" node1="15" node2="0"/>
                <iidm:switch id="FSSV.O1_Sect mnv FS.BIS1 FSSV.O1 1" name="Sect mnv FS.BIS1 FSSV.O1 1" kind="DISCONNECTOR" open="false" node1="15" node2="1"/>
                <iidm:switch id="FSSV.O1_Disj FS.BIS1 FSSV.O1 2" name="Disj FS.BIS1 FSSV.O1 2" kind="BREAKER" open="false" node1="16" node2="17"/>
                <iidm:switch id="FSSV.O1_Sect 1 FS.BIS1 FSSV.O1 2" name="Sect 1 FS.BIS1 FSSV.O1 2" kind="DISCONNECTOR" open="false" node1="17" node2="0"/>
                <iidm:switch id="FSSV.O1_Sect mnv FS.BIS1 FSSV.O1 2" name="Sect mnv FS.BIS1 FSSV.O1 2" kind="DISCONNECTOR" open="true" node1="17" node2="1"/>
                <iidm:switch id="FSSV.O1_Disj FSSV.O11_L" name="Disj FSSV.O11_L" kind="BREAKER" open="false" node1="18" node2="19"/>
                <iidm:switch id="FSSV.O1_Sect 1 FSSV.O11_L" name="Sect 1 FSSV.O11_L" kind="DISCONNECTOR" open="false" node1="19" node2="0"/>
                <iidm:switch id="FSSV.O1_Sect mnv FSSV.O11_L" name="Sect mnv FSSV.O11_L" kind="DISCONNECTOR" open="true" node1="19" node2="1"/>
                <iidm:switch id="FSSV.O1_Disj FSSV.O12_G" name="Disj FSSV.O12_G" kind="BREAKER" open="false" node1="20" node2="21"/>
                <iidm:switch id="FSSV.O1_Sect 1 FSSV.O12_G" name="Sect 1 FSSV.O12_G" kind="DISCONNECTOR" open="true" node1="21" node2="0"/>
                <iidm:switch id="FSSV.O1_Sect mnv FSSV.O12_G" name="Sect mnv FSSV.O12_G" kind="DISCONNECTOR" open="false" node1="21" node2="1"/>
                <iidm:bus v="380.0" angle="0.038091349365863954" nodes="0,1,2,4,5,6,7,8,9,10,11,12,13,14,15,16,17,18,19,20,21"/>
            </iidm:nodeBreakerTopology>
            <iidm:generator id="FSSV.O11_G" energySource="THERMAL" minP="11.0" maxP="100.0" voltageRegulatorOn="true" targetP="100.0" targetV="11.0" targetQ="11.0" node="3" p="-480.0">
                <iidm:property name="genreCvg" value="CHARBON"/>
                <iidm:reactiveCapabilityCurve>
                    <iidm:point p="0.0" minQ="-200.0" maxQ="200.0"/>
                    <iidm:point p="2000.0" minQ="-200.0" maxQ="200.0"/>
                </iidm:reactiveCapabilityCurve>
            </iidm:generator>
            <iidm:generator id="FSSV.O12_G" energySource="THERMAL" minP="0.0" maxP="3000.0" voltageRegulatorOn="true" targetP="3000.0" targetV="406.4500427246094" targetQ="2.3523099422454834" node="20" p="-480.0">
                <iidm:property name="genreCvg" value="CHARBON"/>
                <iidm:reactiveCapabilityCurve>
                    <iidm:point p="0.0" minQ="-200.0" maxQ="200.0"/>
                    <iidm:point p="2000.0" minQ="-200.0" maxQ="200.0"/>
                </iidm:reactiveCapabilityCurve>
            </iidm:generator>
            <iidm:load id="FSSV.O11_L" loadType="UNDEFINED" p0="11.0" q0="11.0" node="18" p="480.0"/>
            <iidm:vscConverterStation id="FSSV.O1_FSSV.O1_HVDC1" name="FSSV.O1_HVDC1" voltageRegulatorOn="true" lossFactor="2.0" voltageSetpoint="11.0" reactivePowerSetpoint="11.0" node="10" p="0.0">
                <iidm:reactiveCapabilityCurve>
                    <iidm:point p="-1011.0" minQ="-300.0" maxQ="300.0"/>
                    <iidm:point p="1011.0" minQ="-300.0" maxQ="300.0"/>
                </iidm:reactiveCapabilityCurve>
            </iidm:vscConverterStation>
            <iidm:vscConverterStation id="FSSV.O1_FSSV.O1_HVDC2" name="FSSV.O1_HVDC2" voltageRegulatorOn="false" lossFactor="2.0" voltageSetpoint="406.0" reactivePowerSetpoint="0.0" node="12" p="0.0">
                <iidm:reactiveCapabilityCurve>
                    <iidm:point p="-1011.0" minQ="-300.0" maxQ="300.0"/>
                    <iidm:point p="1011.0" minQ="-300.0" maxQ="300.0"/>
                </iidm:reactiveCapabilityCurve>
            </iidm:vscConverterStation>
        </iidm:voltageLevel>
    </iidm:substation>
    <iidm:substation id="FVALD" country="FR" tso="RTE">
        <iidm:property name="paysCvg" value="FRANCE"/>
        <iidm:property name="regionCvg" value="LILLE"/>
        <iidm:voltageLevel id="FVALDI1" nominalV="380.0" lowVoltageLimit="342.0" highVoltageLimit="418.0001220703125" topologyKind="NODE_BREAKER">
            <iidm:nodeBreakerTopology>
                <iidm:busbarSection id="FVALDI1_1" name="1" node="0"/>
                <iidm:busbarSection id="FVALDI1_mnv" name="mnv" node="1"/>
                <iidm:switch id="FVALDI1_FVALDI11_G_SC3_0" name="FVALDI11_G_SC3_0" kind="DISCONNECTOR" open="false" node1="0" node2="2"/>
                <iidm:switch id="FVALDI1_FVALDI11_G_SC3_1" name="FVALDI11_G_SC3_1" kind="DISCONNECTOR" open="true" node1="1" node2="2"/>
                <iidm:switch id="FVALDI1_FVALDI11_G_DJ3" name="FVALDI11_G_DJ3" kind="BREAKER" open="false" node1="2" node2="3"/>
                <iidm:switch id="FVALDI1_FS.BIS1  FVALDI1  1_SC5_0" name="FS.BIS1  FVALDI1  1_SC5_0" kind="DISCONNECTOR" open="false" node1="0" node2="4"/>
                <iidm:switch id="FVALDI1_FS.BIS1  FVALDI1  1_SC5_1" name="FS.BIS1  FVALDI1  1_SC5_1" kind="DISCONNECTOR" open="true" node1="1" node2="4"/>
                <iidm:switch id="FVALDI1_FS.BIS1  FVALDI1  1_DJ5" name="FS.BIS1  FVALDI1  1_DJ5" kind="BREAKER" open="false" node1="4" node2="5"/>
                <iidm:switch id="FVALDI1_FS.BIS1  FVALDI1  2_SC7_0" name="FS.BIS1  FVALDI1  2_SC7_0" kind="DISCONNECTOR" open="true" node1="0" node2="6"/>
                <iidm:switch id="FVALDI1_FS.BIS1  FVALDI1  2_SC7_1" name="FS.BIS1  FVALDI1  2_SC7_1" kind="DISCONNECTOR" open="false" node1="1" node2="6"/>
                <iidm:switch id="FVALDI1_FS.BIS1  FVALDI1  2_DJ7" name="FS.BIS1  FVALDI1  2_DJ7" kind="BREAKER" open="false" node1="6" node2="7"/>
                <iidm:switch id="FVALDI1_FVALDI1  FTDPRA1  1_SC9_0" name="FVALDI1  FTDPRA1  1_SC9_0" kind="DISCONNECTOR" open="false" node1="0" node2="8"/>
                <iidm:switch id="FVALDI1_FVALDI1  FTDPRA1  1_SC9_1" name="FVALDI1  FTDPRA1  1_SC9_1" kind="DISCONNECTOR" open="true" node1="1" node2="8"/>
                <iidm:switch id="FVALDI1_FVALDI1  FTDPRA1  1_DJ9" name="FVALDI1  FTDPRA1  1_DJ9" kind="BREAKER" open="false" node1="8" node2="9"/>
                <iidm:switch id="FVALDI1_FVALDI1  FTDPRA1  2_SC11_0" name="FVALDI1  FTDPRA1  2_SC11_0" kind="DISCONNECTOR" open="true" node1="0" node2="10"/>
                <iidm:switch id="FVALDI1_FVALDI1  FTDPRA1  2_SC11_1" name="FVALDI1  FTDPRA1  2_SC11_1" kind="DISCONNECTOR" open="false" node1="1" node2="10"/>
                <iidm:switch id="FVALDI1_FVALDI1  FTDPRA1  2_DJ11" name="FVALDI1  FTDPRA1  2_DJ11" kind="BREAKER" open="false" node1="10" node2="11"/>
                <iidm:switch id="FVALDI1__SC12_0" name="_SC12_0" kind="DISCONNECTOR" open="false" node1="0" node2="12"/>
                <iidm:switch id="FVALDI1__SC12_1" name="_SC12_1" kind="DISCONNECTOR" open="true" node1="1" node2="12"/>
                <iidm:switch id="FVALDI1__SC13_0" name="_SC13_0" kind="DISCONNECTOR" open="true" node1="0" node2="13"/>
                <iidm:switch id="FVALDI1__SC13_1" name="_SC13_1" kind="DISCONNECTOR" open="false" node1="1" node2="13"/>
                <iidm:switch id="FVALDI1_FVALDI1_DJ_OMN" name="FVALDI1_DJ_OMN" kind="BREAKER" retained="true" open="false" node1="12" node2="13"/>
                <iidm:switch id="FVALDI1_Disj HVDC1" name="Disj HVDC1" kind="BREAKER" open="false" node1="14" node2="15"/>
                <iidm:switch id="FVALDI1_Sect 1 HVDC1" name="Sect 1 HVDC1" kind="DISCONNECTOR" open="false" node1="15" node2="0"/>
                <iidm:switch id="FVALDI1_Sect mnv HVDC1" name="Sect mnv HVDC1" kind="DISCONNECTOR" open="true" node1="15" node2="1"/>
                <iidm:switch id="FVALDI1_Disj HVDC2" name="Disj HVDC2" kind="BREAKER" open="false" node1="16" node2="17"/>
                <iidm:switch id="FVALDI1_Sect 1 HVDC2" name="Sect 1 HVDC2" kind="DISCONNECTOR" open="false" node1="17" node2="0"/>
                <iidm:switch id="FVALDI1_Sect mnv HVDC2" name="Sect mnv HVDC2" kind="DISCONNECTOR" open="true" node1="17" node2="1"/>
                <iidm:switch id="FVALDI1_Disj FVALDI11_L" name="Disj FVALDI11_L" kind="BREAKER" open="false" node1="18" node2="19"/>
                <iidm:switch id="FVALDI1_Sect 1 FVALDI11_L" name="Sect 1 FVALDI11_L" kind="DISCONNECTOR" open="false" node1="19" node2="0"/>
                <iidm:switch id="FVALDI1_Sect mnv FVALDI11_L" name="Sect mnv FVALDI11_L" kind="DISCONNECTOR" open="true" node1="19" node2="1"/>
                <iidm:switch id="FVALDI1_Disj FVALDI11_L2" name="Disj FVALDI11_L2" kind="BREAKER" open="false" node1="20" node2="21"/>
                <iidm:switch id="FVALDI1_Sect 1 FVALDI11_L2" name="Sect 1 FVALDI11_L2" kind="DISCONNECTOR" open="true" node1="21" node2="0"/>
                <iidm:switch id="FVALDI1_Sect mnv FVALDI11_L2" name="Sect mnv FVALDI11_L2" kind="DISCONNECTOR" open="false" node1="21" node2="1"/>
                <iidm:switch id="FVALDI1_FVALDI12_G_SC3_0" name="FVALDI12_G_SC3_0" kind="DISCONNECTOR" open="false" node1="0" node2="22"/>
                <iidm:switch id="FVALDI1_FVALDI12_G_SC3_1" name="FVALDI12_G_SC3_1" kind="DISCONNECTOR" open="true" node1="1" node2="22"/>
                <iidm:switch id="FVALDI1_FVALDI12_G_DJ3" name="FVALDI12_G_DJ3" kind="BREAKER" open="false" node1="22" node2="23"/>
                <iidm:switch id="FVALDI1_FVALDI13_G_SC3_0" name="FVALDI13_G_SC3_0" kind="DISCONNECTOR" open="false" node1="0" node2="24"/>
                <iidm:switch id="FVALDI1_FVALDI13_G_SC3_1" name="FVALDI13_G_SC3_1" kind="DISCONNECTOR" open="true" node1="1" node2="24"/>
                <iidm:switch id="FVALDI1_FVALDI13_G_DJ3" name="FVALDI13_G_DJ3" kind="BREAKER" open="false" node1="24" node2="25"/>
                <iidm:switch id="FVALDI1_FVALDI14_G_SC3_0" name="FVALDI14_G_SC3_0" kind="DISCONNECTOR" open="false" node1="0" node2="26"/>
                <iidm:switch id="FVALDI1_FVALDI14_G_SC3_1" name="FVALDI14_G_SC3_1" kind="DISCONNECTOR" open="true" node1="1" node2="26"/>
                <iidm:switch id="FVALDI1_FVALDI14_G_DJ3" name="FVALDI14_G_DJ3" kind="BREAKER" open="false" node1="26" node2="27"/>
                <iidm:switch id="FVALDI1_FVALDI15_G_SC3_0" name="FVALDI15_G_SC3_0" kind="DISCONNECTOR" open="false" node1="0" node2="28"/>
                <iidm:switch id="FVALDI1_FVALDI15_G_SC3_1" name="FVALDI15_G_SC3_1" kind="DISCONNECTOR" open="true" node1="1" node2="28"/>
                <iidm:switch id="FVALDI1_FVALDI15_G_DJ3" name="FVALDI15_G_DJ3" kind="BREAKER" open="false" node1="28" node2="29"/>
                <iidm:switch id="FVALDI1_FVALDI16_G_SC3_0" name="FVALDI16_G_SC3_0" kind="DISCONNECTOR" open="false" node1="0" node2="30"/>
                <iidm:switch id="FVALDI1_FVALDI16_G_SC3_1" name="FVALDI16_G_SC3_1" kind="DISCONNECTOR" open="true" node1="1" node2="30"/>
                <iidm:switch id="FVALDI1_FVALDI16_G_DJ3" name="FVALDI16_G_DJ3" kind="BREAKER" open="true" node1="30" node2="31"/>
                <iidm:bus v="380.0" angle="-0.07618282626649227" nodes="0,1,2,3,4,5,6,7,8,9,10,11,12,13,14,15,16,17,18,19,20,21,22,23,24,25,26,27,28,29,30"/>
            </iidm:nodeBreakerTopology>
            <iidm:generator id="FVALDI11_G" energySource="THERMAL" minP="0.0" maxP="2000.0" voltageRegulatorOn="true" targetP="0.0" targetV="406.4500427246094" targetQ="6.45497989654541" node="3" p="-0.0">
                <iidm:property name="genreCvg" value="CHARBON"/>
                <iidm:reactiveCapabilityCurve>
                    <iidm:point p="0.0" minQ="-200.0" maxQ="200.0"/>
                    <iidm:point p="2500.0" minQ="-200.0" maxQ="200.0"/>
                </iidm:reactiveCapabilityCurve>
            </iidm:generator>
            <iidm:generator id="FVALDI12_G" energySource="THERMAL" minP="-100.0" maxP="2500.0" voltageRegulatorOn="true" targetP="0.0" targetV="406.4500427246094" targetQ="6.45497989654541" node="23" p="-0.0">
                <iidm:property name="genreCvg" value="CHARBON"/>
                <iidm:reactiveCapabilityCurve>
                    <iidm:point p="0.0" minQ="-200.0" maxQ="200.0"/>
                    <iidm:point p="2500.0" minQ="-200.0" maxQ="200.0"/>
                </iidm:reactiveCapabilityCurve>
            </iidm:generator>
            <iidm:generator id="FVALDI13_G" energySource="THERMAL" minP="500.0" maxP="1000.0" voltageRegulatorOn="true" targetP="0.0" targetV="406.4500427246094" targetQ="6.45497989654541" node="25" p="-0.0">
                <iidm:property name="genreCvg" value="CHARBON"/>
                <iidm:reactiveCapabilityCurve>
                    <iidm:point p="0.0" minQ="-200.0" maxQ="200.0"/>
                    <iidm:point p="2500.0" minQ="-200.0" maxQ="200.0"/>
                </iidm:reactiveCapabilityCurve>
            </iidm:generator>
            <iidm:generator id="FVALDI14_G" energySource="THERMAL" minP="-1000.0" maxP="0.0" voltageRegulatorOn="true" targetP="0.0" targetV="406.4500427246094" targetQ="6.45497989654541" node="27" p="-0.0">
                <iidm:property name="genreCvg" value="CHARBON"/>
                <iidm:reactiveCapabilityCurve>
                    <iidm:point p="0.0" minQ="-200.0" maxQ="200.0"/>
                    <iidm:point p="2500.0" minQ="-200.0" maxQ="200.0"/>
                </iidm:reactiveCapabilityCurve>
            </iidm:generator>
            <iidm:generator id="FVALDI15_G" energySource="THERMAL" minP="0.0" maxP="0.0" voltageRegulatorOn="true" targetP="0.0" targetV="406.4500427246094" targetQ="6.45497989654541" node="29" p="-0.0">
                <iidm:property name="genreCvg" value="CHARBON"/>
                <iidm:reactiveCapabilityCurve>
                    <iidm:point p="0.0" minQ="-200.0" maxQ="200.0"/>
                    <iidm:point p="2500.0" minQ="-200.0" maxQ="200.0"/>
                </iidm:reactiveCapabilityCurve>
            </iidm:generator>
            <iidm:generator id="FVALDI16_G" energySource="THERMAL" minP="0.0" maxP="0.0" voltageRegulatorOn="true" targetP="0.0" targetV="406.4500427246094" targetQ="6.45497989654541" node="31" p="-0.0">
                <iidm:property name="genreCvg" value="CHARBON"/>
                <iidm:reactiveCapabilityCurve>
                    <iidm:point p="0.0" minQ="-200.0" maxQ="200.0"/>
                    <iidm:point p="2500.0" minQ="-200.0" maxQ="200.0"/>
                </iidm:reactiveCapabilityCurve>
            </iidm:generator>
            <iidm:load id="FVALDI11_L" loadType="UNDEFINED" p0="81.0" q0="11.0" node="18" p="480.0"/>
            <iidm:load id="FVALDI11_L2" loadType="UNDEFINED" p0="11.0" q0="11.0" node="20" p="0.0"/>
            <iidm:lccConverterStation id="FVALDI1_FVALDI1_HVDC1" name="FVALDI1_HVDC1" lossFactor="2.0" powerFactor="1.0" node="14" p="0.0"/>
            <iidm:lccConverterStation id="FVALDI1_FVALDI1_HVDC2" name="FVALDI1_HVDC2" lossFactor="2.0" powerFactor="0.5" node="16" p="0.0"/>
        </iidm:voltageLevel>
    </iidm:substation>
    <iidm:substation id="FVERG" country="FR" tso="RTE">
        <iidm:property name="paysCvg" value="FRANCE"/>
        <iidm:property name="regionCvg" value="LILLE"/>
        <iidm:voltageLevel id="FVERGE1" nominalV="380.0" lowVoltageLimit="342.0" highVoltageLimit="418.0001220703125" topologyKind="NODE_BREAKER">
            <iidm:nodeBreakerTopology>
                <iidm:busbarSection id="FVERGE1_1" name="1" node="0"/>
                <iidm:busbarSection id="FVERGE1_mnv" name="mnv" node="1"/>
                <iidm:switch id="FVERGE1_FVERGE11_G_SC3_0" name="FVERGE11_G_SC3_0" kind="DISCONNECTOR" open="false" node1="0" node2="2"/>
                <iidm:switch id="FVERGE1_FVERGE11_G_SC3_1" name="FVERGE11_G_SC3_1" kind="DISCONNECTOR" open="false" node1="1" node2="2"/>
                <iidm:switch id="FVERGE1_FVERGE11_G_DJ3" name="FVERGE11_G_DJ3" kind="BREAKER" open="false" node1="2" node2="3"/>
                <iidm:switch id="FVERGE1_FP.AND1  FVERGE1  1_SC5_0" name="FP.AND1  FVERGE1  1_SC5_0" kind="DISCONNECTOR" open="false" node1="0" node2="4"/>
                <iidm:switch id="FVERGE1_FP.AND1  FVERGE1  1_SC5_1" name="FP.AND1  FVERGE1  1_SC5_1" kind="DISCONNECTOR" open="true" node1="1" node2="4"/>
                <iidm:switch id="FVERGE1_FP.AND1  FVERGE1  1_DJ5" name="FP.AND1  FVERGE1  1_DJ5" kind="BREAKER" open="true" node1="4" node2="5"/>
                <iidm:switch id="FVERGE1_FP.AND1  FVERGE1  2_SC7_0" name="FP.AND1  FVERGE1  2_SC7_0" kind="DISCONNECTOR" open="false" node1="0" node2="6"/>
                <iidm:switch id="FVERGE1_FP.AND1  FVERGE1  2_SC7_1" name="FP.AND1  FVERGE1  2_SC7_1" kind="DISCONNECTOR" open="true" node1="1" node2="6"/>
                <iidm:switch id="FVERGE1_FP.AND1  FVERGE1  2_DJ7" name="FP.AND1  FVERGE1  2_DJ7" kind="BREAKER" open="false" node1="6" node2="7"/>
                <iidm:switch id="FVERGE1_FTDPRA1  FVERGE1  1_SC9_0" name="FTDPRA1  FVERGE1  1_SC9_0" kind="DISCONNECTOR" open="false" node1="0" node2="8"/>
                <iidm:switch id="FVERGE1_FTDPRA1  FVERGE1  1_SC9_1" name="FTDPRA1  FVERGE1  1_SC9_1" kind="DISCONNECTOR" open="true" node1="1" node2="8"/>
                <iidm:switch id="FVERGE1_FTDPRA1  FVERGE1  1_DJ9" name="FTDPRA1  FVERGE1  1_DJ9" kind="BREAKER" open="false" node1="8" node2="9"/>
                <iidm:switch id="FVERGE1_FTDPRA1  FVERGE1  2_SC11_0" name="FTDPRA1  FVERGE1  2_SC11_0" kind="DISCONNECTOR" open="false" node1="0" node2="10"/>
                <iidm:switch id="FVERGE1_FTDPRA1  FVERGE1  2_SC11_1" name="FTDPRA1  FVERGE1  2_SC11_1" kind="DISCONNECTOR" open="true" node1="1" node2="10"/>
                <iidm:switch id="FVERGE1_FTDPRA1  FVERGE1  2_DJ11" name="FTDPRA1  FVERGE1  2_DJ11" kind="BREAKER" open="false" node1="10" node2="11"/>
                <iidm:switch id="FVERGE1__SC12_0" name="_SC12_0" kind="DISCONNECTOR" open="false" node1="0" node2="12"/>
                <iidm:switch id="FVERGE1__SC12_1" name="_SC12_1" kind="DISCONNECTOR" open="true" node1="1" node2="12"/>
                <iidm:switch id="FVERGE1__SC13_0" name="_SC13_0" kind="DISCONNECTOR" open="true" node1="0" node2="13"/>
                <iidm:switch id="FVERGE1__SC13_1" name="_SC13_1" kind="DISCONNECTOR" open="false" node1="1" node2="13"/>
                <iidm:switch id="FVERGE1_FVERGE1_DJ_OMN" name="FVERGE1_DJ_OMN" kind="BREAKER" open="false" node1="12" node2="13"/>
                <iidm:bus v="380.0" angle="-0.01904573845031415" nodes="0,1,2,3,4,6,7,8,9,10,11,12,13"/>
            </iidm:nodeBreakerTopology>
            <iidm:generator id="FVERGE11_G" energySource="THERMAL" minP="0.0" maxP="0.0" voltageRegulatorOn="true" targetP="0.0" targetV="406.4500427246094" targetQ="7.481579780578613" node="3" p="-0.0">
                <iidm:property name="genreCvg" value="CHARBON"/>
                <iidm:reactiveCapabilityCurve>
                    <iidm:point p="0.0" minQ="-200.0" maxQ="200.0"/>
                    <iidm:point p="600.0" minQ="-200.0" maxQ="200.0"/>
                </iidm:reactiveCapabilityCurve>
            </iidm:generator>
        </iidm:voltageLevel>
    </iidm:substation>
    <iidm:line id="FP.AND1  FVERGE1  1" r="1.0" x="1.0" voltageLevelId1="FP.AND1" node1="3" voltageLevelId2="FVERGE1" node2="5" p1="48.0001285680805" p2="-48.0001285680805" selectedOperationalLimitsGroupIds1="DEFAULT" selectedOperationalLimitsGroupIds2="DEFAULT">
        <iidm:operationalLimitsGroup1 id="DEFAULT">
            <iidm:currentLimits permanentLimit="600.0">
                <iidm:temporaryLimit name="IT20" acceptableDuration="1200" value="650.0"/>
                <iidm:temporaryLimit name="IT10" acceptableDuration="600" value="700.0"/>
                <iidm:temporaryLimit name="IT0.0166667" acceptableDuration="1"/>
            </iidm:currentLimits>
        </iidm:operationalLimitsGroup1>
        <iidm:operationalLimitsGroup2 id="DEFAULT">
            <iidm:currentLimits permanentLimit="600.0"/>
        </iidm:operationalLimitsGroup2>
    </iidm:line>
    <iidm:line id="FP.AND1  FVERGE1  2" r="2.0" x="1.0" voltageLevelId1="FP.AND1" node1="5" voltageLevelId2="FVERGE1" node2="7" p1="48.0001285680805" p2="-48.0001285680805" selectedOperationalLimitsGroupIds1="DEFAULT" selectedOperationalLimitsGroupIds2="DEFAULT">
        <iidm:operationalLimitsGroup1 id="DEFAULT">
            <iidm:currentLimits permanentLimit="600.0">
                <iidm:temporaryLimit name="IT20" acceptableDuration="1200" value="650.0"/>
                <iidm:temporaryLimit name="IT10" acceptableDuration="600" value="700.0"/>
                <iidm:temporaryLimit name="IT0.0166667" acceptableDuration="1"/>
            </iidm:currentLimits>
        </iidm:operationalLimitsGroup1>
        <iidm:operationalLimitsGroup2 id="DEFAULT">
            <iidm:currentLimits permanentLimit="600.0"/>
        </iidm:operationalLimitsGroup2>
    </iidm:line>
    <iidm:line id="FS.BIS1  FVALDI1  1" r="3.0" x="1.0" voltageLevelId1="FS.BIS1" node1="3" voltageLevelId2="FVALDI1" node2="5" p1="144.0000642840403" p2="-144.0000642840403" selectedOperationalLimitsGroupIds1="DEFAULT" selectedOperationalLimitsGroupIds2="DEFAULT">
        <iidm:operationalLimitsGroup1 id="DEFAULT">
            <iidm:currentLimits permanentLimit="500.00006103515625">
                <iidm:temporaryLimit name="IST" value="550.0" fictitious="true"/>
                <iidm:temporaryLimit name="IT20" acceptableDuration="1200" value="500.00006103515625"/>
                <iidm:temporaryLimit name="IT10" acceptableDuration="600" value="600.0"/>
                <iidm:temporaryLimit name="IT0.0166667" acceptableDuration="1"/>
            </iidm:currentLimits>
        </iidm:operationalLimitsGroup1>
        <iidm:operationalLimitsGroup2 id="DEFAULT">
            <iidm:currentLimits permanentLimit="500.00006103515625"/>
        </iidm:operationalLimitsGroup2>
    </iidm:line>
    <iidm:line id="FS.BIS1  FVALDI1  2" r="4.0" x="1.0" voltageLevelId1="FS.BIS1" node1="5" voltageLevelId2="FVALDI1" node2="7" p1="144.0000642840403" p2="-144.0000642840403" selectedOperationalLimitsGroupIds1="DEFAULT" selectedOperationalLimitsGroupIds2="DEFAULT">
        <iidm:operationalLimitsGroup1 id="DEFAULT">
            <iidm:currentLimits permanentLimit="500.00006103515625">
                <iidm:temporaryLimit name="IST" value="550.0" fictitious="true"/>
                <iidm:temporaryLimit name="IT20" acceptableDuration="1200" value="500.00006103515625"/>
                <iidm:temporaryLimit name="IT10" acceptableDuration="600" value="600.0"/>
                <iidm:temporaryLimit name="IT0.0166667" acceptableDuration="1"/>
            </iidm:currentLimits>
        </iidm:operationalLimitsGroup1>
        <iidm:operationalLimitsGroup2 id="DEFAULT">
            <iidm:currentLimits permanentLimit="500.00006103515625"/>
        </iidm:operationalLimitsGroup2>
    </iidm:line>
    <iidm:line id="FS.BIS1 FSSV.O1 1" r="5.0" x="1.0" voltageLevelId1="FS.BIS1" node1="8" voltageLevelId2="FSSV.O1" node2="14" p1="-144.00006428404023" p2="144.00006428404023" selectedOperationalLimitsGroupIds1="DEFAULT" selectedOperationalLimitsGroupIds2="DEFAULT">
        <iidm:operationalLimitsGroup1 id="DEFAULT">
            <iidm:currentLimits permanentLimit="500.00006103515625">
                <iidm:temporaryLimit name="IST" value="550.0" fictitious="true"/>
                <iidm:temporaryLimit name="IT20" acceptableDuration="1200" value="500.00006103515625"/>
                <iidm:temporaryLimit name="IT10" acceptableDuration="600" value="600.0"/>
                <iidm:temporaryLimit name="IT0.0166667" acceptableDuration="1"/>
            </iidm:currentLimits>
        </iidm:operationalLimitsGroup1>
        <iidm:operationalLimitsGroup2 id="DEFAULT">
            <iidm:currentLimits permanentLimit="500.00006103515625"/>
        </iidm:operationalLimitsGroup2>
    </iidm:line>
    <iidm:line id="FS.BIS1 FSSV.O1 2" r="6.0" x="1.0" voltageLevelId1="FS.BIS1" node1="10" voltageLevelId2="FSSV.O1" node2="16" p1="-144.00006428404023" p2="144.00006428404023" selectedOperationalLimitsGroupIds1="DEFAULT" selectedOperationalLimitsGroupIds2="DEFAULT">
        <iidm:operationalLimitsGroup1 id="DEFAULT">
            <iidm:currentLimits permanentLimit="500.00006103515625">
                <iidm:temporaryLimit name="IST" value="550.0" fictitious="true"/>
                <iidm:temporaryLimit name="IT20" acceptableDuration="1200" value="500.00006103515625"/>
                <iidm:temporaryLimit name="IT10" acceptableDuration="600" value="600.0"/>
                <iidm:temporaryLimit name="IT0.0166667" acceptableDuration="1"/>
            </iidm:currentLimits>
        </iidm:operationalLimitsGroup1>
        <iidm:operationalLimitsGroup2 id="DEFAULT">
            <iidm:currentLimits permanentLimit="500.00006103515625"/>
        </iidm:operationalLimitsGroup2>
    </iidm:line>
    <iidm:line id="FSSV.O1  FP.AND1  1" r="7.0" x="1.0" voltageLevelId1="FSSV.O1" node1="5" voltageLevelId2="FP.AND1" node2="7" p1="95.99993571595975" p2="-95.99993571595975" selectedOperationalLimitsGroupIds1="DEFAULT" selectedOperationalLimitsGroupIds2="DEFAULT">
        <iidm:operationalLimitsGroup1 id="DEFAULT">
            <iidm:currentLimits permanentLimit="600.0">
                <iidm:temporaryLimit name="IT20" acceptableDuration="1200" value="650.0"/>
                <iidm:temporaryLimit name="IT10" acceptableDuration="600" value="700.0"/>
                <iidm:temporaryLimit name="IT0.0166667" acceptableDuration="1"/>
            </iidm:currentLimits>
        </iidm:operationalLimitsGroup1>
        <iidm:operationalLimitsGroup2 id="DEFAULT">
            <iidm:currentLimits permanentLimit="600.0"/>
        </iidm:operationalLimitsGroup2>
    </iidm:line>
    <iidm:line id="FSSV.O1  FP.AND1  2" r="8.0" x="1.0" voltageLevelId1="FSSV.O1" node1="7" voltageLevelId2="FP.AND1" node2="9" p1="95.99993571595975" p2="-95.99993571595975" selectedOperationalLimitsGroupIds1="DEFAULT" selectedOperationalLimitsGroupIds2="DEFAULT">
        <iidm:operationalLimitsGroup1 id="DEFAULT">
            <iidm:currentLimits permanentLimit="600.0">
                <iidm:temporaryLimit name="IT20" acceptableDuration="1200" value="650.0"/>
                <iidm:temporaryLimit name="IT10" acceptableDuration="600" value="700.0"/>
                <iidm:temporaryLimit name="IT0.0166667" acceptableDuration="1"/>
            </iidm:currentLimits>
        </iidm:operationalLimitsGroup1>
        <iidm:operationalLimitsGroup2 id="DEFAULT">
            <iidm:currentLimits permanentLimit="600.0"/>
        </iidm:operationalLimitsGroup2>
    </iidm:line>
    <iidm:line id="FTDPRA1  FVERGE1  1" r="9.0" x="1.0" voltageLevelId1="FTDPRA1" node1="3" voltageLevelId2="FVERGE1" node2="9" p1="-48.0001285680805" p2="48.0001285680805" selectedOperationalLimitsGroupIds1="DEFAULT" selectedOperationalLimitsGroupIds2="DEFAULT">
        <iidm:operationalLimitsGroup1 id="DEFAULT">
            <iidm:currentLimits permanentLimit="600.0">
                <iidm:temporaryLimit name="IT20" acceptableDuration="1200" value="650.0"/>
                <iidm:temporaryLimit name="IT10" acceptableDuration="600" value="700.0"/>
                <iidm:temporaryLimit name="IT0.0166667" acceptableDuration="1"/>
            </iidm:currentLimits>
        </iidm:operationalLimitsGroup1>
        <iidm:operationalLimitsGroup2 id="DEFAULT">
            <iidm:currentLimits permanentLimit="600.0"/>
        </iidm:operationalLimitsGroup2>
    </iidm:line>
    <iidm:line id="FTDPRA1  FVERGE1  2" r="10.0" x="1.0" voltageLevelId1="FTDPRA1" node1="5" voltageLevelId2="FVERGE1" node2="11" p1="-48.0001285680805" p2="48.0001285680805" selectedOperationalLimitsGroupIds1="DEFAULT" selectedOperationalLimitsGroupIds2="DEFAULT">
        <iidm:operationalLimitsGroup1 id="DEFAULT">
            <iidm:currentLimits permanentLimit="600.0">
                <iidm:temporaryLimit name="IT20" acceptableDuration="1200" value="650.0"/>
                <iidm:temporaryLimit name="IT10" acceptableDuration="600" value="700.0"/>
                <iidm:temporaryLimit name="IT0.0166667" acceptableDuration="1"/>
            </iidm:currentLimits>
        </iidm:operationalLimitsGroup1>
        <iidm:operationalLimitsGroup2 id="DEFAULT">
            <iidm:currentLimits permanentLimit="600.0"/>
        </iidm:operationalLimitsGroup2>
    </iidm:line>
    <iidm:line id="FVALDI1  FTDPRA1  1" r="11.0" x="1.0" voltageLevelId1="FVALDI1" node1="9" voltageLevelId2="FTDPRA1" node2="7" p1="-95.99993571595978" p2="95.99993571595978" selectedOperationalLimitsGroupIds1="DEFAULT" selectedOperationalLimitsGroupIds2="DEFAULT">
        <iidm:operationalLimitsGroup1 id="DEFAULT">
            <iidm:currentLimits permanentLimit="600.0">
                <iidm:temporaryLimit name="IT20" acceptableDuration="1200" value="650.0"/>
                <iidm:temporaryLimit name="IT10" acceptableDuration="600" value="700.0"/>
                <iidm:temporaryLimit name="IT0.0166667" acceptableDuration="1"/>
            </iidm:currentLimits>
        </iidm:operationalLimitsGroup1>
        <iidm:operationalLimitsGroup2 id="DEFAULT">
            <iidm:currentLimits permanentLimit="600.0"/>
        </iidm:operationalLimitsGroup2>
    </iidm:line>
    <iidm:line id="FVALDI1  FTDPRA1  2" r="12.0" x="1.0" voltageLevelId1="FVALDI1" node1="11" voltageLevelId2="FTDPRA1" node2="9" p1="-95.99993571595978" p2="95.99993571595978" selectedOperationalLimitsGroupIds1="DEFAULT" selectedOperationalLimitsGroupIds2="DEFAULT">
        <iidm:operationalLimitsGroup1 id="DEFAULT">
            <iidm:currentLimits permanentLimit="600.0">
                <iidm:temporaryLimit name="IT20" acceptableDuration="1200" value="650.0"/>
                <iidm:temporaryLimit name="IT10" acceptableDuration="600" value="700.0"/>
                <iidm:temporaryLimit name="IT0.0166667" acceptableDuration="1"/>
            </iidm:currentLimits>
        </iidm:operationalLimitsGroup1>
        <iidm:operationalLimitsGroup2 id="DEFAULT">
            <iidm:currentLimits permanentLimit="600.0"/>
        </iidm:operationalLimitsGroup2>
    </iidm:line>
    <iidm:hvdcLine id="HVDC1" r="0.25" nominalV="11.0" convertersMode="SIDE_1_RECTIFIER_SIDE_2_INVERTER" activePowerSetpoint="11.0" maxP="1011.0" converterStation1="FSSV.O1_FSSV.O1_HVDC1" converterStation2="FVALDI1_FVALDI1_HVDC1"/>
    <iidm:hvdcLine id="HVDC2" r="0.25" nominalV="320.0" convertersMode="SIDE_1_RECTIFIER_SIDE_2_INVERTER" activePowerSetpoint="0.0" maxP="1011.0" converterStation1="FSSV.O1_FSSV.O1_HVDC2" converterStation2="FVALDI1_FVALDI1_HVDC2"/>
    <iidm:extension id="FVALDI11_L2">
        <ld:detail fixedActivePower="0.0" fixedReactivePower="0.0" variableActivePower="11.0" variableReactivePower="11.0"/>
    </iidm:extension>
    <iidm:extension id="FVALDI11_L">
        <ld:detail fixedActivePower="11.0" fixedReactivePower="11.0" variableActivePower="70.0" variableReactivePower="0.0"/>
    </iidm:extension>
    <iidm:extension id="HVDC1">
        <hopr:hvdcOperatorActivePowerRange fromCS1toCS2="1011.0" fromCS2toCS1="1011.0"/>
    </iidm:extension>
    <iidm:extension id="HVDC2">
        <hopr:hvdcOperatorActivePowerRange fromCS1toCS2="11.0" fromCS2toCS1="11.0"/>
        <hapc:hvdcAngleDroopActivePowerControl p0="100.0" droop="180.0" enabled="false"/>
    </iidm:extension>
</iidm:network>